LAMMPS (2 Aug 2023 - Update 3)

# 1------general---------------
units                             metal      #单位为lammps 中的metel 类型
dimension                    3          #模拟的维度 三维
boundary                    p p p      #周期边界条件
atom_style                  atomic   #原子类型自动
atom_modify              map array sort 100 2.0
neighbor                    3.0 bin
neigh_modify            every 1 delay 0 check yes
#2 -----global variable-------定义全局变量，方便统一修改；
variable temperature equal 300
variable tstep equal 0.001
variable pressure equal 0
variable thermalstep equal 100
variable dumpstep equal 1000
variable relaxtime equal 0
variable totaltime equal 100000
variable deformrate equal 5e-3
#3 -------model------------
#box tilt large
read_data     1.lmp
Reading data file ...
  orthogonal box = (-100 -100 -2.3312515) to (100 100 46.166171)
  reading atoms ...
  1480 atoms
replicate 1 1 1
Replication is creating a 1x1x1 = 1 times larger system...
  orthogonal box = (-100 -100 -2.3312515) to (100 100 46.166171)
  1480 atoms
  replicate CPU = 0.001 seconds
group SR type 2 3
360 atoms in group SR
delete_atoms group SR
Deleted 360 atoms, new total = 1120

write_data z.data
System init for write_data ...
pair_style hybrid airebo 3.0 airebo 3.0 airebo 3.0 lj/cut 10
pair_coeff * * airebo 1 CH.airebo C NULL NULL
Reading airebo potential file CH.airebo with DATE: 2011-10-25
pair_coeff * * airebo 2 CH.airebo NULL C NULL
Reading airebo potential file CH.airebo with DATE: 2011-10-25
pair_coeff * * airebo 3 CH.airebo NULL NULL C
Reading airebo potential file CH.airebo with DATE: 2011-10-25
pair_coeff 1 2 lj/cut 0.00456 3.431
pair_coeff 1 3 lj/cut 0.00456 3.431
pair_coeff 2 3 lj/cut 0.00456 3.431

# 5------minimize -----------
min_style      sd
minimize       1.0e-4 1.0e-6 100 1000
Step          Temp          E_pair         E_mol          TotEng         Press
0   0             -8302.0952      0             -8302.0952     -48.029154
Loop time of 0.023164 on 12 procs for 1 steps with 1120 atoms

Minimization stats:
  Stopping criterion = energy tolerance
  Energy initial, next-to-last, final =
  Force two-norm initial, final = 1.756651 0.28579382
  Force max component initial, final = 0.052442243 0.0085447709
  Final line search alpha, max atom move = 1 0.0085447709
  Iterations, force evaluations = 1 2

#6----define computes------
variable nums equal count(all) #计算原子数目
variable toval equal 18.7166*18.7166*lz #计算系统总体积，单层石墨烯厚度为0.335nm
variable vol equal 16989.1863529152
variable vatom equal v_vol/v_nums #单个原子体积
compute 1 all stress/atom NULL #计算体系中单原子应力
compute xalls all reduce sum c_1[1]
variable xstress equal (c_xalls)/(v_toval*10000)
compute yalls all reduce sum c_1[2]
variable ystress equal (c_yalls)/(v_toval*10000)
compute zalls all reduce sum c_1[3]
variable zstress equal (c_zalls)/(v_toval*10000)
#7---------relaxation-------------------------
timestep 0.001
velocity all create 300 231743 units box dist gaussian
dump   1 all atom 100 all-cy.lammpstrj
#fix    1 all npt temp 300 300  0.1 aniso 0 0 10 drag 1  #三个方向独立控压
fix  1 all npt temp 300 300 0.1 x 0 0 10 y 0 0 10
compute  2 all pe/atom
compute  pe all reduce sum c_2
variable PE equal "c_pe"
thermo  100
#thermo_style  custom step pe ke etotal lx ly lz
run   0
Step          Temp          E_pair         E_mol          TotEng         Press          Volume
1   300           -8302.1071      0             -8258.7145     -24.050074      1939896.9
Loop time of 4.25827e-05 on 12 procs for 0 steps with 1120 atoms

#8 -------tension-----------------------------
unfix  1
undump  1
unfix  pe
reset_timestep 0
fix avestress all ave/atom 1 1000 1000 c_1[1] c_1[2] c_1[3] c_1[4] c_1[5] c_1[6]

#-----calculation of strain and Cumulative compression--------
variable                tmp equal "lz"
variable                L0 equal 48.497423
variable                strain equal "(lz - v_L0)/v_L0"
variable                Cumulativels equal "(lz - v_L0)/10"

dump 2 all custom 1000 tension.xyz type x y z f_avestress[1] f_avestress[2] f_avestress[3] f_avestress[4] f_avestress[5] f_avestress[6]

fix  1 all npt temp 300 300 0.1 y 0 0 10 x 0 0 10

thermo_style custom step pe ke etotal lx ly lz
fix   2 all deform 1 z erate 0.005 remap x units box
fix   3 all ave/time 2 500 1000 v_xstress v_ystress v_zstress file pressure.out
run   100000
Step         PotEng         KinEng         TotEng           Lx             Ly             Lz
0  -8302.1071      43.392631     -8258.7145      200            200            48.497423
Averages over the last 501 of 1001 rows, steps 50000 to 100000:
PotEng KinEng TotEng Lx Ly Lz
-7127.01 46.7174 -7080.29 174.441 160.11 66.684
Loop time of 1042.68 on 12 procs for 100000 steps with 1120 atoms
